# generated using pymatgen
data_BaH32N5
_symmetry_space_group_name_H-M   'P 1'
_cell_length_a   4.75000
_cell_length_b   4.75000
_cell_length_c   4.75000
_cell_angle_alpha   60.00000000
_cell_angle_beta   60.00000000
_cell_angle_gamma   60.00000000
_symmetry_Int_Tables_number   1
_chemical_formula_structural   BaH32N5
_chemical_formula_sum   'Ba1 H32 N5'
_cell_volume   130.95122613
_cell_formula_units_Z   1
loop_
 _symmetry_equiv_pos_site_id
 _symmetry_equiv_pos_as_xyz
  1  'x, y, z'
loop_
 _atom_site_type_symbol
 _atom_site_label
 _atom_site_symmetry_multiplicity
 _atom_site_fract_x
 _atom_site_fract_y
 _atom_site_fract_z
 _atom_site_occupancy
  H  H0  1  0.16695000  0.16694500  0.49916000  1
  H  H1  1  0.25084000  0.58305500  0.58305000  1
  H  H2  1  0.16695000  0.49916000  0.16694500  1
  H  H3  1  0.58305500  0.58305500  0.58305000  1
  H  H4  1  0.16694500  0.16694500  0.16695000  1
  H  H5  1  0.58305500  0.25084000  0.58305500  1
  H  H6  1  0.49916000  0.16694500  0.16694500  1
  H  H7  1  0.58304500  0.58305500  0.25084000  1
  H  H8  1  0.12508000  0.74560000  0.38372000  1
  H  H9  1  0.36628000  0.62492000  0.00440000  1
  H  H10  1  0.74560000  0.38372000  0.74560000  1
  H  H11  1  0.00440000  0.00440000  0.62492000  1
  H  H12  1  0.74560000  0.12508000  0.74560000  1
  H  H13  1  0.62492000  0.36628000  0.00440000  1
  H  H14  1  0.38372000  0.74560000  0.12508000  1
  H  H15  1  0.00440000  0.00440000  0.36628000  1
  H  H16  1  0.74560000  0.38372000  0.12508000  1
  H  H17  1  0.62492000  0.00440000  0.36628000  1
  H  H18  1  0.38372000  0.74560000  0.74560000  1
  H  H19  1  0.00440000  0.62492000  0.00440000  1
  H  H20  1  0.12508000  0.74560000  0.74560000  1
  H  H21  1  0.36628000  0.00440000  0.62492000  1
  H  H22  1  0.74560000  0.12508000  0.38372000  1
  H  H23  1  0.00440000  0.36628000  0.00440000  1
  H  H24  1  0.38372000  0.12508000  0.74560000  1
  H  H25  1  0.00440000  0.36628000  0.62492000  1
  H  H26  1  0.74560000  0.74560000  0.38372000  1
  H  H27  1  0.62492000  0.00440000  0.00440000  1
  H  H28  1  0.74560000  0.74560000  0.12508000  1
  H  H29  1  0.00440000  0.62492000  0.36628000  1
  H  H30  1  0.12508000  0.38372000  0.74560000  1
  H  H31  1  0.36628000  0.00440000  0.00440000  1
  N  X32  1  0.37500000  0.37500000  0.87500000  1
  N  X33  1  0.87500000  0.37500000  0.37500000  1
  N  X34  1  0.37500000  0.87500000  0.37500000  1
  N  X35  1  0.37500000  0.37500000  0.37500000  1
  N  X36  1  0.00000000  0.00000000  0.00000000  1
  Ba X37  1  0.75000000  0.75000000  0.75000000  1
