# generated using pymatgen
data_Li2MgH16
_symmetry_space_group_name_H-M   'P 1'
_cell_length_a   2.79596300
_cell_length_b   2.79596300
_cell_length_c   8.00000000
_cell_angle_alpha   90.00000000
_cell_angle_beta   90.00000000
_cell_angle_gamma   120.00000000
_symmetry_Int_Tables_number   1
_chemical_formula_structural   Li2MgH16
_chemical_formula_sum   'Li2 Mg1 H16'
_cell_volume   35.97204811
_cell_formula_units_Z   1
loop_
 _symmetry_equiv_pos_site_id
 _symmetry_equiv_pos_as_xyz
  1  'x, y, z'
loop_
 _atom_site_type_symbol
 _atom_site_label
 _atom_site_symmetry_multiplicity
 _atom_site_fract_x
 _atom_site_fract_y
 _atom_site_fract_z
 _atom_site_occupancy
  Li  Li0  1  0.33333333  0.66666667  0.83626000  1
  Li  Li1  1  0.66666667  0.33333333  0.16374000  1
  Mg  Mg2  1  0.00000000  0.00000000  0.50000000  1
  H  H3  1  0.82843000  0.17158000  0.92030000  1
  H  H4  1  0.17157000  0.82842000  0.07970000  1
  H  H5  1  0.34315000  0.17157000  0.92030000  1
  H  H6  1  0.65685000  0.82843000  0.07970000  1
  H  H7  1  0.82842000  0.65685000  0.92030000  1
  H  H8  1  0.17158000  0.34315000  0.07970000  1
  H  H9  1  0.66666667  0.33333333  0.42549000  1
  H  H10  1  0.33333333  0.66666667  0.57451000  1
  H  H11  1  0.33333333  0.66666667  0.39139000  1
  H  H12  1  0.66666667  0.33333333  0.60861000  1
  H  H13  1  0.32880000  0.16440000  0.76347000  1
  H  H14  1  0.67120000  0.83560000  0.23653000  1
  H  H15  1  0.83560000  0.67120000  0.76347000  1
  H  H16  1  0.16440000  0.32880000  0.23653000  1
  H  H17  1  0.83560000  0.16440000  0.76347000  1
  H  H18  1  0.16440000  0.83560000  0.23653000  1
